13
H5 C4 O4
O -1.936717 -4.304477 1.340447
C -1.564983 -4.972292 0.205195
C -2.848717 -3.337223 1.001565
O -0.732433 -5.821751 0.174535
O -2.274614 -4.538252 -0.838251
C -3.263893 -3.586680 -0.398728
H -1.288801 -1.423440 0.789532
H -3.501990 -3.000414 1.811012
H -3.256564 -2.726964 -1.076341
H -4.255059 -4.063006 -0.427272
C -0.977505 -1.377330 0.657077
O 0.039676 -1.851372 0.137835
H -0.995820 -0.301540 0.879674